%mem=48GB
%nprocshared=24
#p opt=(calcfc,ts,noeigen) freq ub3lyp/lanl2dz nosymm scf=xqc

Molecule Name

0 5
 C                 40.16350000   36.93580000   43.26120000
 C                 39.23730000   36.70700000   42.25950000
 N                 41.30610000   36.21120000   42.89600000
 C                 41.05380000   35.56900000   41.70690000
 N                 39.80970000   35.85990000   41.30530000
 H                 42.17200000   36.15710000   43.41470000
 H                 38.22300000   37.05460000   42.15170000
 H                 41.72670000   34.91180000   41.16390000
 C                 41.59820000   32.42780000   37.60600000
 C                 41.29520000   33.48800000   38.66200000
 O                 40.16670000   34.16290000   38.45680000
 O                 42.08270000   33.68380000   39.63250000
 H                 41.48500000   32.85010000   36.60090000
 H                 40.87210000   31.60950000   37.69800000
 C                 39.30540000   38.98400000   37.69770000
 C                 38.80970000   38.16390000   38.69510000
 N                 40.07090000   38.15420000   36.86920000
 C                 40.02020000   36.87820000   37.37720000
 N                 39.26550000   36.85860000   38.48090000
 H                 40.57120000   38.43730000   36.03760000
 H                 38.15980000   38.39550000   39.52170000
 H                 40.50520000   36.01450000   36.95460000
 Fe                38.83710000   35.10300000   39.60000000
 O                 38.39090000   33.58530000   40.60140000
 C                 36.30280000   35.74830000   39.32070000
 C                 34.83310000   36.04130000   39.12390000
 O                 36.91250000   34.88690000   38.54890000
 O                 36.98740000   36.31550000   40.27050000
 H                 34.23640000   35.25960000   39.61360000
 H                 34.58650000   36.03270000   38.05780000
 H                 40.10820000   37.52410000   44.16230000
 H                 39.18170000   40.03840000   37.51330000
 H                 42.60830000   32.03300000   37.74140000
 H                 34.57240000   37.00520000   39.56970000
 C                 34.35790000   32.00730000   40.90880000
 N                 36.20590000   32.97910000   42.18610000
 C                 35.89820000   31.85570000   41.24910000
 C                 36.23740000   30.41480000   41.75070000
 C                 37.44590000   29.93780000   40.90070000
 C                 37.21580000   30.63550000   39.53740000
 C                 36.64240000   31.97860000   39.91330000
 O                 33.69280000   31.13760000   40.33030000
 O                 33.89530000   33.22460000   41.30290000
 H                 37.06110000   33.48290000   41.89800000
 H                 35.36200000   33.53510000   42.06000000
 H                 36.44700000   30.40350000   42.82660000
 H                 35.37570000   29.76410000   41.56470000
 H                 37.48650000   28.84670000   40.81540000
 H                 38.39220000   30.28180000   41.33710000
 H                 38.10620000   30.70540000   38.90050000
 H                 36.44970000   30.09090000   38.95230000
 H                 36.31200000   32.69910000   39.16260000
 H                 37.95120000   32.77900000   40.09240000
 H                 36.24790000   32.67530000   43.15920000

